# Name file for MODFLOW-2005, generated by Flopy version 3.10.0.
#xll:0.0; yll:0.0; rotation:0.0; units:meters; lenuni:2; start_datetime:1-1-1970
LIST               2  bas6_demo.list
DIS               11  bas6_demo.dis
BAS6              13  bas6_demo.bas
LPF               15  bas6_demo.lpf
RCH               19  bas6_demo.rch
PCG               27  bas6_demo.pcg
OC                14  bas6_demo.oc
DATA(BINARY)      53  bas6_demo.cbc REPLACE
DATA(BINARY)      51  bas6_demo.hds REPLACE
