# BAS6 package for MODFLOW-2005 generated by Flopy 3.10.0
FREE
INTERNAL               1    (50I10) -1 #ibound layer 1                
        -1         1         1         1         1         1         1         1         1         1         1         1         1         1         1         1         1         1         1         1         1         1         1         1         1         1         1         1         1         1         1         1         1         1         1         1         1         1         1         1         1         1         1         1         1         1         1         1         1        -1
        -1         1         1         1         1         1         1         1         1         1         1         1         1         1         1         1         1         1         1         1         1         1         1         1         1         1         1         1         1         1         1         1         1         1         1         1         1         1         1         1         1         1         1         1         1         1         1         1         1        -1
        -1         1         1         1         1         1         1         1         1         1         1         1         1         1         1         1         1         1         1         1         1         1         1         1         1         1         1         1         1         1         1         1         1         1         1         1         1         1         1         1         1         1         1         1         1         1         1         1         1        -1
        -1         1         1         1         1         1         1         1         1         1         1         1         1         1         1         1         1         1         1         1         1         1         1         1         1         1         1         1         1         1         1         1         1         1         1         1         1         1         1         1         1         1         1         1         1         1         1         1         1        -1
        -1         1         1         1         1         1         1         1         1         1         1         1         1         1         1         1         1         1         1         1         1         1         1         1         1         1         1         1         1         1         1         1         1         1         1         1         1         1         1         1         1         1         1         1         1         1         1         1         1        -1
        -1         1         1         1         1         1         1         1         1         1         1         1         1         1         1         1         1         1         1         1         1         1         1         1         1         1         1         1         1         1         1         1         1         1         1         1         1         1         1         1         1         1         1         1         1         1         1         1         1        -1
        -1         1         1         1         1         1         1         1         1         1         1         1         1         1         1         1         1         1         1         1         1         1         1         1         1         1         1         1         1         1         1         1         1         1         1         1         1         1         1         1         1         1         1         1         1         1         1         1         1        -1
        -1         1         1         1         1         1         1         1         1         1         1         1         1         1         1         1         1         1         1         1         1         1         1         1         1         1         1         1         1         1         1         1         1         1         1         1         1         1         1         1         1         1         1         1         1         1         1         1         1        -1
        -1         1         1         1         1         1         1         1         1         1         1         1         1         1         1         1         1         1         1         1         1         1         1         1         1         1         1         1         1         1         1         1         1         1         1         1         1         1         1         1         1         1         1         1         1         1         1         1         1        -1
        -1         1         1         1         1         1         1         1         1         1         1         1         1         1         1         1         1         1         1         1         1         1         1         1         1         1         1         1         1         1         1         1         1         1         1         1         1         1         1         1         1         1         1         1         1         1         1         1         1        -1
        -1         1         1         1         1         1         1         1         1         1         1         1         1         1         1         1         1         1         1         1         1         1         1         1         1         1         1         1         1         1         1         1         1         1         1         1         1         1         1         1         1         1         1         1         1         1         1         1         1        -1
        -1         1         1         1         1         1         1         1         1         1         1         1         1         1         1         1         1         1         1         1         1         1         1         1         1         1         1         1         1         1         1         1         1         1         1         1         1         1         1         1         1         1         1         1         1         1         1         1         1        -1
        -1         1         1         1         1         1         1         1         1         1         1         1         1         1         1         1         1         1         1         1         1         1         1         1         1         1         1         1         1         1         1         1         1         1         1         1         1         1         1         1         1         1         1         1         1         1         1         1         1        -1
        -1         1         1         1         1         1         1         1         1         1         1         1         1         1         1         1         1         1         1         1         1         1         1         1         1         1         1         1         1         1         1         1         1         1         1         1         1         1         1         1         1         1         1         1         1         1         1         1         1        -1
        -1         1         1         1         1         1         1         1         1         1         1         1         1         1         1         1         1         1         1         1         1         1         1         1         1         1         1         1         1         1         1         1         1         1         1         1         1         1         1         1         1         1         1         1         1         1         1         1         1        -1
        -1         1         1         1         1         1         1         1         1         1         1         1         1         1         1         1         1         1         1         1         1         1         1         1         1         1         1         1         1         1         1         1         1         1         1         1         1         1         1         1         1         1         1         1         1         1         1         1         1        -1
        -1         1         1         1         1         1         1         1         1         1         1         1         1         1         1         1         1         1         1         1         1         1         1         1         1         1         1         1         1         1         1         1         1         1         1         1         1         1         1         1         1         1         1         1         1         1         1         1         1        -1
        -1         1         1         1         1         1         1         1         1         1         1         1         1         1         1         1         1         1         1         1         1         1         1         1         1         1         1         1         1         1         1         1         1         1         1         1         1         1         1         1         1         1         1         1         1         1         1         1         1        -1
        -1         1         1         1         1         1         1         1         1         1         1         1         1         1         1         1         1         1         1         1         1         1         1         1         1         1         1         1         1         1         1         1         1         1         1         1         1         1         1         1         1         1         1         1         1         1         1         1         1        -1
        -1         1         1         1         1         1         1         1         1         1         1         1         1         1         1         1         1         1         1         1         1         1         1         1         1         1         1         1         1         1         1         1         1         1         1         1         1         1         1         1         1         1         1         1         1         1         1         1         1        -1
        -1         1         1         1         1         1         1         1         1         1         1         1         1         1         1         1         1         1         1         1         1         1         1         1         1         1         1         1         1         1         1         1         1         1         1         1         1         1         1         1         1         1         1         1         1         1         1         1         1        -1
        -1         1         1         1         1         1         1         1         1         1         1         1         1         1         1         1         1         1         1         1         1         1         1         1         1         1         1         1         1         1         1         1         1         1         1         1         1         1         1         1         1         1         1         1         1         1         1         1         1        -1
        -1         1         1         1         1         1         1         1         1         1         1         1         1         1         1         1         1         1         1         1         1         1         1         1         1         1         1         1         1         1         1         1         1         1         1         1         1         1         1         1         1         1         1         1         1         1         1         1         1        -1
        -1         1         1         1         1         1         1         1         1         1         1         1         1         1         1         1         1         1         1         1         1         1         1         1         1         1         1         1         1         1         1         1         1         1         1         1         1         1         1         1         1         1         1         1         1         1         1         1         1        -1
        -1         1         1         1         1         1         1         1         1         1         1         1         1         1         1         1         1         1         1         1         1         1         1         1         1         1         1         1         1         1         1         1         1         1         1         1         1         1         1         1         1         1         1         1         1         1         1         1         1        -1
        -1         1         1         1         1         1         1         1         1         1         1         1         1         1         1         1         1         1         1         1         1         1         1         1         1         1         1         1         1         1         1         1         1         1         1         1         1         1         1         1         1         1         1         1         1         1         1         1         1        -1
        -1         1         1         1         1         1         1         1         1         1         1         1         1         1         1         1         1         1         1         1         1         1         1         1         1         1         1         1         1         1         1         1         1         1         1         1         1         1         1         1         1         1         1         1         1         1         1         1         1        -1
        -1         1         1         1         1         1         1         1         1         1         1         1         1         1         1         1         1         1         1         1         1         1         1         1         1         1         1         1         1         1         1         1         1         1         1         1         1         1         1         1         1         1         1         1         1         1         1         1         1        -1
        -1         1         1         1         1         1         1         1         1         1         1         1         1         1         1         1         1         1         1         1         1         1         1         1         1         1         1         1         1         1         1         1         1         1         1         1         1         1         1         1         1         1         1         1         1         1         1         1         1        -1
        -1         1         1         1         1         1         1         1         1         1         1         1         1         1         1         1         1         1         1         1         1         1         1         1         1         1         1         1         1         1         1         1         1         1         1         1         1         1         1         1         1         1         1         1         1         1         1         1         1        -1
        -1         1         1         1         1         1         1         1         1         1         1         1         1         1         1         1         1         1         1         1         1         1         1         1         1         1         1         1         1         1         1         1         1         1         1         1         1         1         1         1         1         1         1         1         1         1         1         1         1        -1
        -1         1         1         1         1         1         1         1         1         1         1         1         1         1         1         1         1         1         1         1         1         1         1         1         1         1         1         1         1         1         1         1         1         1         1         1         1         1         1         1         1         1         1         1         1         1         1         1         1        -1
        -1         1         1         1         1         1         1         1         1         1         1         1         1         1         1         1         1         1         1         1         1         1         1         1         1         1         1         1         1         1         1         1         1         1         1         1         1         1         1         1         1         1         1         1         1         1         1         1         1        -1
        -1         1         1         1         1         1         1         1         1         1         1         1         1         1         1         1         1         1         1         1         1         1         1         1         1         1         1         1         1         1         1         1         1         1         1         1         1         1         1         1         1         1         1         1         1         1         1         1         1        -1
        -1         1         1         1         1         1         1         1         1         1         1         1         1         1         1         1         1         1         1         1         1         1         1         1         1         1         1         1         1         1         1         1         1         1         1         1         1         1         1         1         1         1         1         1         1         1         1         1         1        -1
        -1         1         1         1         1         1         1         1         1         1         1         1         1         1         1         1         1         1         1         1         1         1         1         1         1         1         1         1         1         1         1         1         1         1         1         1         1         1         1         1         1         1         1         1         1         1         1         1         1        -1
        -1         1         1         1         1         1         1         1         1         1         1         1         1         1         1         1         1         1         1         1         1         1         1         1         1         1         1         1         1         1         1         1         1         1         1         1         1         1         1         1         1         1         1         1         1         1         1         1         1        -1
        -1         1         1         1         1         1         1         1         1         1         1         1         1         1         1         1         1         1         1         1         1         1         1         1         1         1         1         1         1         1         1         1         1         1         1         1         1         1         1         1         1         1         1         1         1         1         1         1         1        -1
        -1         1         1         1         1         1         1         1         1         1         1         1         1         1         1         1         1         1         1         1         1         1         1         1         1         1         1         1         1         1         1         1         1         1         1         1         1         1         1         1         1         1         1         1         1         1         1         1         1        -1
        -1         1         1         1         1         1         1         1         1         1         1         1         1         1         1         1         1         1         1         1         1         1         1         1         1         1         1         1         1         1         1         1         1         1         1         1         1         1         1         1         1         1         1         1         1         1         1         1         1        -1
        -1         1         1         1         1         1         1         1         1         1         1         1         1         1         1         1         1         1         1         1         1         1         1         1         1         1         1         1         1         1         1         1         1         1         1         1         1         1         1         1         1         1         1         1         1         1         1         1         1        -1
        -1         1         1         1         1         1         1         1         1         1         1         1         1         1         1         1         1         1         1         1         1         1         1         1         1         1         1         1         1         1         1         1         1         1         1         1         1         1         1         1         1         1         1         1         1         1         1         1         1        -1
        -1         1         1         1         1         1         1         1         1         1         1         1         1         1         1         1         1         1         1         1         1         1         1         1         1         1         1         1         1         1         1         1         1         1         1         1         1         1         1         1         1         1         1         1         1         1         1         1         1        -1
        -1         1         1         1         1         1         1         1         1         1         1         1         1         1         1         1         1         1         1         1         1         1         1         1         1         1         1         1         1         1         1         1         1         1         1         1         1         1         1         1         1         1         1         1         1         1         1         1         1        -1
        -1         1         1         1         1         1         1         1         1         1         1         1         1         1         1         1         1         1         1         1         1         1         1         1         1         1         1         1         1         1         1         1         1         1         1         1         1         1         1         1         1         1         1         1         1         1         1         1         1        -1
        -1         1         1         1         1         1         1         1         1         1         1         1         1         1         1         1         1         1         1         1         1         1         1         1         1         1         1         1         1         1         1         1         1         1         1         1         1         1         1         1         1         1         1         1         1         1         1         1         1        -1
        -1         1         1         1         1         1         1         1         1         1         1         1         1         1         1         1         1         1         1         1         1         1         1         1         1         1         1         1         1         1         1         1         1         1         1         1         1         1         1         1         1         1         1         1         1         1         1         1         1        -1
        -1         1         1         1         1         1         1         1         1         1         1         1         1         1         1         1         1         1         1         1         1         1         1         1         1         1         1         1         1         1         1         1         1         1         1         1         1         1         1         1         1         1         1         1         1         1         1         1         1        -1
        -1         1         1         1         1         1         1         1         1         1         1         1         1         1         1         1         1         1         1         1         1         1         1         1         1         1         1         1         1         1         1         1         1         1         1         1         1         1         1         1         1         1         1         1         1         1         1         1         1        -1
        -1         1         1         1         1         1         1         1         1         1         1         1         1         1         1         1         1         1         1         1         1         1         1         1         1         1         1         1         1         1         1         1         1         1         1         1         1         1         1         1         1         1         1         1         1         1         1         1         1        -1
   -999.99
INTERNAL               1  (50E15.6) -1 #strt layer 1                  
   1.000000E+02   9.500000E+01   9.500000E+01   9.500000E+01   9.500000E+01   9.500000E+01   9.500000E+01   9.500000E+01   9.500000E+01   9.500000E+01   9.500000E+01   9.500000E+01   9.500000E+01   9.500000E+01   9.500000E+01   9.500000E+01   9.500000E+01   9.500000E+01   9.500000E+01   9.500000E+01   9.500000E+01   9.500000E+01   9.500000E+01   9.500000E+01   9.500000E+01   9.500000E+01   9.500000E+01   9.500000E+01   9.500000E+01   9.500000E+01   9.500000E+01   9.500000E+01   9.500000E+01   9.500000E+01   9.500000E+01   9.500000E+01   9.500000E+01   9.500000E+01   9.500000E+01   9.500000E+01   9.500000E+01   9.500000E+01   9.500000E+01   9.500000E+01   9.500000E+01   9.500000E+01   9.500000E+01   9.500000E+01   9.500000E+01   9.000000E+01
   1.000000E+02   9.500000E+01   9.500000E+01   9.500000E+01   9.500000E+01   9.500000E+01   9.500000E+01   9.500000E+01   9.500000E+01   9.500000E+01   9.500000E+01   9.500000E+01   9.500000E+01   9.500000E+01   9.500000E+01   9.500000E+01   9.500000E+01   9.500000E+01   9.500000E+01   9.500000E+01   9.500000E+01   9.500000E+01   9.500000E+01   9.500000E+01   9.500000E+01   9.500000E+01   9.500000E+01   9.500000E+01   9.500000E+01   9.500000E+01   9.500000E+01   9.500000E+01   9.500000E+01   9.500000E+01   9.500000E+01   9.500000E+01   9.500000E+01   9.500000E+01   9.500000E+01   9.500000E+01   9.500000E+01   9.500000E+01   9.500000E+01   9.500000E+01   9.500000E+01   9.500000E+01   9.500000E+01   9.500000E+01   9.500000E+01   9.000000E+01
   1.000000E+02   9.500000E+01   9.500000E+01   9.500000E+01   9.500000E+01   9.500000E+01   9.500000E+01   9.500000E+01   9.500000E+01   9.500000E+01   9.500000E+01   9.500000E+01   9.500000E+01   9.500000E+01   9.500000E+01   9.500000E+01   9.500000E+01   9.500000E+01   9.500000E+01   9.500000E+01   9.500000E+01   9.500000E+01   9.500000E+01   9.500000E+01   9.500000E+01   9.500000E+01   9.500000E+01   9.500000E+01   9.500000E+01   9.500000E+01   9.500000E+01   9.500000E+01   9.500000E+01   9.500000E+01   9.500000E+01   9.500000E+01   9.500000E+01   9.500000E+01   9.500000E+01   9.500000E+01   9.500000E+01   9.500000E+01   9.500000E+01   9.500000E+01   9.500000E+01   9.500000E+01   9.500000E+01   9.500000E+01   9.500000E+01   9.000000E+01
   1.000000E+02   9.500000E+01   9.500000E+01   9.500000E+01   9.500000E+01   9.500000E+01   9.500000E+01   9.500000E+01   9.500000E+01   9.500000E+01   9.500000E+01   9.500000E+01   9.500000E+01   9.500000E+01   9.500000E+01   9.500000E+01   9.500000E+01   9.500000E+01   9.500000E+01   9.500000E+01   9.500000E+01   9.500000E+01   9.500000E+01   9.500000E+01   9.500000E+01   9.500000E+01   9.500000E+01   9.500000E+01   9.500000E+01   9.500000E+01   9.500000E+01   9.500000E+01   9.500000E+01   9.500000E+01   9.500000E+01   9.500000E+01   9.500000E+01   9.500000E+01   9.500000E+01   9.500000E+01   9.500000E+01   9.500000E+01   9.500000E+01   9.500000E+01   9.500000E+01   9.500000E+01   9.500000E+01   9.500000E+01   9.500000E+01   9.000000E+01
   1.000000E+02   9.500000E+01   9.500000E+01   9.500000E+01   9.500000E+01   9.500000E+01   9.500000E+01   9.500000E+01   9.500000E+01   9.500000E+01   9.500000E+01   9.500000E+01   9.500000E+01   9.500000E+01   9.500000E+01   9.500000E+01   9.500000E+01   9.500000E+01   9.500000E+01   9.500000E+01   9.500000E+01   9.500000E+01   9.500000E+01   9.500000E+01   9.500000E+01   9.500000E+01   9.500000E+01   9.500000E+01   9.500000E+01   9.500000E+01   9.500000E+01   9.500000E+01   9.500000E+01   9.500000E+01   9.500000E+01   9.500000E+01   9.500000E+01   9.500000E+01   9.500000E+01   9.500000E+01   9.500000E+01   9.500000E+01   9.500000E+01   9.500000E+01   9.500000E+01   9.500000E+01   9.500000E+01   9.500000E+01   9.500000E+01   9.000000E+01
   1.000000E+02   9.500000E+01   9.500000E+01   9.500000E+01   9.500000E+01   9.500000E+01   9.500000E+01   9.500000E+01   9.500000E+01   9.500000E+01   9.500000E+01   9.500000E+01   9.500000E+01   9.500000E+01   9.500000E+01   9.500000E+01   9.500000E+01   9.500000E+01   9.500000E+01   9.500000E+01   9.500000E+01   9.500000E+01   9.500000E+01   9.500000E+01   9.500000E+01   9.500000E+01   9.500000E+01   9.500000E+01   9.500000E+01   9.500000E+01   9.500000E+01   9.500000E+01   9.500000E+01   9.500000E+01   9.500000E+01   9.500000E+01   9.500000E+01   9.500000E+01   9.500000E+01   9.500000E+01   9.500000E+01   9.500000E+01   9.500000E+01   9.500000E+01   9.500000E+01   9.500000E+01   9.500000E+01   9.500000E+01   9.500000E+01   9.000000E+01