# PCG package for MODFLOW-2005 generated by Flopy 3.10.0
50 30 1 0
1e-05 0.0001 0.98 0 0 3 1.0 
