# Name file for MODFLOW-2005, generated by Flopy version 3.10.0.
#xll:0.0; yll:0.0; rotation:0.0; units:meters; lenuni:2; start_datetime:1-1-1970
LIST               2  static_ensemble_S2wel_1323131.list
DIS               11  static_ensemble_S2wel_1323131.dis
BAS6              13  static_ensemble_S2wel_1323131.bas
LPF               15  static_ensemble_S2wel_1323131.lpf
EVT               22  static_ensemble_S2wel_1323131.evt
RCH               19  static_ensemble_S2wel_1323131.rch
RIV               18  static_ensemble_S2wel_1323131.riv
WEL               20  static_ensemble_S2wel_1323131.wel
OC                14  static_ensemble_S2wel_1323131.oc
PCG               27  static_ensemble_S2wel_1323131.pcg
DATA(BINARY)      53  static_ensemble_S2wel_1323131.cbc REPLACE
DATA(BINARY)      51  static_ensemble_S2wel_1323131.hds REPLACE
DATA(BINARY)      52  static_ensemble_S2wel_1323131.ddn REPLACE
