# WEL package for MODFLOW-2005 generated by Flopy 3.10.0
         4         0 
         4         0 # stress period 1
         3        22        39         -1500.0
         1        13        15         -4500.0
         1        25        26           375.0
         3        30        39         -1500.0
