# WEL package for MODFLOW-2005 generated by Flopy 3.10.0
         3         0 
         3         0 # stress period 1
         1        32        21       -348.0784
         1        59        34       -5231.033
         1        59        46       -5231.033
